LAMMPS (1 Feb 2014)
# SRD diffusion demo - dimer particles

units		lj
atom_style	sphere
atom_modify	map array first big
dimension	2

# read in clusters of rigid bodies

fix             molprop all property/atom mol
read_data	data.dimer fix molprop NULL Molecules
  orthogonal box = (-9.34165 -9.34165 -0.5) to (9.34165 9.34165 0.5)
  reading atoms ...
  200 atoms

set		type 1 mass 1.0
  200 settings made for mass
group		big type 1
200 atoms in group big
velocity	big create 1.44 87287 loop geom

# equilibrate big particles

pair_style	soft 1.12
pair_coeff	1 1 0.0
pair_coeff	2 2 0.0 0.0
pair_coeff	1 2 0.0 0.0

variable        prefactor equal ramp(0,60)
fix             soft all adapt 1 pair soft a * * v_prefactor

fix		1 big rigid molecule
100 rigid bodies with 200 atoms
fix		2 all enforce2d

#dump		1 all atom 10 dump.dimer.equil

thermo		100
run		1000
Step Temp E_pair E_mol TotEng Press
0    3.4028231            0            0   0.83369167  -0.55065517
Averages over the last 6 of 11 rows, steps 500 to 1000:
Temp E_pair E_mol TotEng Press
16.8705 9.34626 0 13.4795 5.55199
Loop time of 0.0666709 on 1 procs for 1000 steps with 200 atoms

Pair  time (%) = 0.0176787 (26.5164)
Neigh time (%) = 0.00369525 (5.54252)
Comm  time (%) = 0.00185156 (2.77716)
Outpt time (%) = 0.000205755 (0.308613)
Other time (%) = 0.0432396 (64.8553)
